<configuration>
    <input>
        <net-file value="simpnetw.net.xml"/>
        <route-files value="route.rou.xml"/>
    </input>
    <time>
        <begin value="0"/>
        <end value="3600"/>
        <time>
            <step-length value="0.01"/>
        </time>
    </time>
</configuration>
