<?xml version="1.0" encoding="UTF-8"?>

<!-- generated on 2024-11-06 20:43:03 by Eclipse SUMO duarouter Version 1.18.0
<configuration xmlns:xsi="http://www.w3.org/2001/XMLSchema-instance" xsi:noNamespaceSchemaLocation="http://sumo.dlr.de/xsd/duarouterConfiguration.xsd">

    <input>
        <net-file value="simpnetw.net.xml"/>
        <route-files value="trips.trips.xml"/>
    </input>

    <output>
        <output-file value="route.rou.xml"/>
    </output>

</configuration>
-->

<routes xmlns:xsi="http://www.w3.org/2001/XMLSchema-instance" xsi:noNamespaceSchemaLocation="http://sumo.dlr.de/xsd/routes_file.xsd">
    <vehicle id="0" depart="6.00">
        <route edges="E5 -E4 -E3 E2"/>
    </vehicle>
    <vehicle id="1" depart="32.00">
        <route edges="E3 E4 -E5 -E0 E2"/>
    </vehicle>
    <vehicle id="2" depart="40.00">
        <route edges="-E5 -E0"/>
    </vehicle>
    <vehicle id="3" depart="87.00">
        <route edges="E5 -E4 -E3 E2 -E9 -E8 E4 -E5"/>
    </vehicle>
    <vehicle id="4" depart="94.00">
        <route edges="E4 -E5 -E0 E2 E10 E11"/>
    </vehicle>
    <vehicle id="5" depart="95.00">
        <route edges="-E1 E2 E10 E11 E6 E7"/>
    </vehicle>
    <vehicle id="6" depart="118.00">
        <route edges="E8 E9 -E2 E0"/>
    </vehicle>
    <vehicle id="7" depart="126.00">
        <route edges="-E4 -E3 E2 -E9 -E8"/>
    </vehicle>
    <vehicle id="8" depart="137.00">
        <route edges="E4"/>
    </vehicle>
    <vehicle id="9" depart="154.00">
        <route edges="-E6 -E1 E3 E4"/>
    </vehicle>
    <vehicle id="10" depart="166.00">
        <route edges="E0 E5 -E4 E8 E9"/>
    </vehicle>
    <vehicle id="11" depart="168.00">
        <route edges="-E11"/>
    </vehicle>
    <vehicle id="12" depart="191.00">
        <route edges="E8 E9 -E2 E1 -E11 -E10"/>
    </vehicle>
    <vehicle id="13" depart="203.00">
        <route edges="E0 E5 -E4"/>
    </vehicle>
    <vehicle id="14" depart="218.00">
        <route edges="-E8 -E3 E2 E10"/>
    </vehicle>
    <vehicle id="15" depart="284.00">
        <route edges="E5 -E4 -E3 E1 E6 E7"/>
    </vehicle>
    <vehicle id="16" depart="308.00">
        <route edges="E0 -E7 -E6 -E11 -E10 -E9 -E8"/>
    </vehicle>
    <vehicle id="17" depart="326.00">
        <route edges="E4 -E5 -E0 E2 -E9 -E8 -E3"/>
    </vehicle>
    <vehicle id="18" depart="330.00">
        <route edges="E6 E7 -E0 E1 -E11"/>
    </vehicle>
    <vehicle id="19" depart="332.00">
        <route edges="E4 -E5 -E0 E2 -E9 -E8 -E3"/>
    </vehicle>
    <vehicle id="20" depart="364.00">
        <route edges="E6 E7 -E0 E1"/>
    </vehicle>
    <vehicle id="21" depart="375.00">
        <route edges="-E5 -E0 E2 -E9 -E8 -E3"/>
    </vehicle>
    <vehicle id="22" depart="376.00">
        <route edges="E3 E8 E9 -E2"/>
    </vehicle>
    <vehicle id="23" depart="379.00">
        <route edges="E8 E9 E10 E11 E6"/>
    </vehicle>
    <vehicle id="24" depart="381.00">
        <route edges="-E5 -E7 -E6 -E1 E0 E5"/>
    </vehicle>
    <vehicle id="25" depart="447.00">
        <route edges="-E1 E0 E5 -E4"/>
    </vehicle>
    <vehicle id="26" depart="452.00">
        <route edges="E0 E5 -E4 -E3"/>
    </vehicle>
    <vehicle id="27" depart="458.00">
        <route edges="E4 -E5 -E7 -E6"/>
    </vehicle>
    <vehicle id="28" depart="560.00">
        <route edges="-E5 -E7 -E6 -E11"/>
    </vehicle>
    <vehicle id="29" depart="583.00">
        <route edges="E1 -E11 -E10 -E2 E3 E8"/>
    </vehicle>
    <vehicle id="30" depart="592.00">
        <route edges="E1 -E11 -E10"/>
    </vehicle>
    <vehicle id="31" depart="604.00">
        <route edges="E11 -E1 E2"/>
    </vehicle>
    <vehicle id="32" depart="632.00">
        <route edges="-E0 E3 E4 -E5"/>
    </vehicle>
    <vehicle id="33" depart="637.00">
        <route edges="-E2 E1 -E11 -E10"/>
    </vehicle>
    <vehicle id="34" depart="660.00">
        <route edges="E8 E9"/>
    </vehicle>
    <vehicle id="35" depart="680.00">
        <route edges="E0 -E7 -E6"/>
    </vehicle>
    <vehicle id="36" depart="682.00">
        <route edges="E1 E6 E7 -E0"/>
    </vehicle>
    <vehicle id="37" depart="684.00">
        <route edges="E5 -E4 -E3 E2"/>
    </vehicle>
    <vehicle id="38" depart="692.00">
        <route edges="-E2 E1 -E11 -E10 -E9"/>
    </vehicle>
    <vehicle id="39" depart="714.00">
        <route edges="-E5 -E7 -E6"/>
    </vehicle>
    <vehicle id="40" depart="750.00">
        <route edges="-E4 -E3 E0"/>
    </vehicle>
    <vehicle id="41" depart="781.00">
        <route edges="-E11 -E10 -E2 E0 E5"/>
    </vehicle>
    <vehicle id="42" depart="810.00">
        <route edges="E4 -E5 -E0 E3"/>
    </vehicle>
    <vehicle id="43" depart="819.00">
        <route edges="E8 E9 -E2"/>
    </vehicle>
    <vehicle id="44" depart="825.00">
        <route edges="-E9 -E8 -E3 E1 -E11"/>
    </vehicle>
    <vehicle id="45" depart="826.00">
        <route edges="E2 -E9 -E8 -E3 E0 E5"/>
    </vehicle>
    <vehicle id="46" depart="831.00">
        <route edges="E11 -E1 E2 -E9 -E8"/>
    </vehicle>
    <vehicle id="47" depart="847.00">
        <route edges="-E1 E0 E5 -E4"/>
    </vehicle>
    <vehicle id="48" depart="879.00">
        <route edges="-E2 E1"/>
    </vehicle>
    <vehicle id="49" depart="883.00">
        <route edges="-E7 -E6 -E11 -E10 -E9 -E8 -E3"/>
    </vehicle>
    <vehicle id="50" depart="885.00">
        <route edges="E11 E6"/>
    </vehicle>
    <vehicle id="51" depart="907.00">
        <route edges="E5 -E4 E8 E9"/>
    </vehicle>
    <vehicle id="52" depart="910.00">
        <route edges="-E1 E2 E10 E11 E6 E7"/>
    </vehicle>
    <vehicle id="53" depart="939.00">
        <route edges="E8 E9 -E2"/>
    </vehicle>
    <vehicle id="54" depart="941.00">
        <route edges="E10 E11 -E1 E3 E8"/>
    </vehicle>
    <vehicle id="55" depart="960.00">
        <route edges="-E7 -E6 -E1 E3"/>
    </vehicle>
    <vehicle id="56" depart="1009.00">
        <route edges="E5 -E4 -E3 E2 -E9 -E8 E4 -E5"/>
    </vehicle>
    <vehicle id="57" depart="1030.00">
        <route edges="E4"/>
    </vehicle>
    <vehicle id="58" depart="1030.00">
        <route edges="E7 -E0 E2 E10 E11"/>
    </vehicle>
    <vehicle id="59" depart="1031.00">
        <route edges="-E4 -E3 E0 E5"/>
    </vehicle>
    <vehicle id="60" depart="1064.00">
        <route edges="-E4 -E3 E2 -E9 -E8 E4"/>
    </vehicle>
    <vehicle id="61" depart="1069.00">
        <route edges="-E5 -E7 -E6 -E1 E0 E5"/>
    </vehicle>
    <vehicle id="62" depart="1083.00">
        <route edges="E2 -E9 -E8"/>
    </vehicle>
    <vehicle id="63" depart="1093.00">
        <route edges="E2 E10 E11 E6 E7"/>
    </vehicle>
    <vehicle id="64" depart="1129.00">
        <route edges="-E10 -E9 -E8 -E3 E2 E10"/>
    </vehicle>
    <vehicle id="65" depart="1175.00">
        <route edges="-E4 E8 E9 E10"/>
    </vehicle>
    <vehicle id="66" depart="1193.00">
        <route edges="E2 -E9 -E8"/>
    </vehicle>
    <vehicle id="67" depart="1201.00">
        <route edges="-E1 E2"/>
    </vehicle>
    <vehicle id="68" depart="1210.00">
        <route edges="E2 -E9 -E8 -E3 E0"/>
    </vehicle>
    <vehicle id="69" depart="1221.00">
        <route edges="E10 E11 -E1 E0"/>
    </vehicle>
    <vehicle id="70" depart="1234.00">
        <route edges="-E3"/>
    </vehicle>
    <vehicle id="71" depart="1241.00">
        <route edges="E0 -E7 -E6 -E1 E3 E4 -E5 -E0"/>
    </vehicle>
    <vehicle id="72" depart="1274.00">
        <route edges="E3 E8 E9 E10 E11"/>
    </vehicle>
    <vehicle id="73" depart="1295.00">
        <route edges="E11 -E1 E2"/>
    </vehicle>
    <vehicle id="74" depart="1307.00">
        <route edges="-E10 -E2 E1 -E11"/>
    </vehicle>
    <vehicle id="75" depart="1317.00">
        <route edges="-E11 -E10 -E2 E3 E8 E9"/>
    </vehicle>
    <vehicle id="76" depart="1333.00">
        <route edges="E5 -E4 -E3"/>
    </vehicle>
    <vehicle id="77" depart="1351.00">
        <route edges="-E3 E1"/>
    </vehicle>
    <vehicle id="78" depart="1368.00">
        <route edges="-E10 -E2 E1 E6"/>
    </vehicle>
    <vehicle id="79" depart="1397.00">
        <route edges="E5 -E4 -E3 E1 E6"/>
    </vehicle>
    <vehicle id="80" depart="1398.00">
        <route edges="E8"/>
    </vehicle>
    <vehicle id="81" depart="1399.00">
        <route edges="-E8 E4 -E5"/>
    </vehicle>
    <vehicle id="82" depart="1399.00">
        <route edges="-E6 -E1 E0 -E7"/>
    </vehicle>
    <vehicle id="83" depart="1408.00">
        <route edges="-E1 E0"/>
    </vehicle>
    <vehicle id="84" depart="1427.00">
        <route edges="-E1 E3 E4"/>
    </vehicle>
    <vehicle id="85" depart="1442.00">
        <route edges="E11 -E1 E0 -E7"/>
    </vehicle>
    <vehicle id="86" depart="1443.00">
        <route edges="E6 E7 -E0 E3 E4"/>
    </vehicle>
    <vehicle id="87" depart="1475.00">
        <route edges="E5 -E4 -E3 E2"/>
    </vehicle>
    <vehicle id="88" depart="1488.00">
        <route edges="E4 -E5 -E7"/>
    </vehicle>
    <vehicle id="89" depart="1509.00">
        <route edges="E2 -E9 -E8 -E3 E1 -E11 -E10"/>
    </vehicle>
    <vehicle id="90" depart="1513.00">
        <route edges="E1 E6 E7 -E0 E2 E10 E11"/>
    </vehicle>
    <vehicle id="91" depart="1516.00">
        <route edges="-E7 -E6 -E1 E0 E5 -E4"/>
    </vehicle>
    <vehicle id="92" depart="1517.00">
        <route edges="E6 E7 -E0 E2 E10 E11"/>
    </vehicle>
    <vehicle id="93" depart="1521.00">
        <route edges="-E3 E0"/>
    </vehicle>
    <vehicle id="94" depart="1550.00">
        <route edges="-E4 -E3 E0 -E7"/>
    </vehicle>
    <vehicle id="95" depart="1582.00">
        <route edges="E7 E5 -E4 -E3"/>
    </vehicle>
    <vehicle id="96" depart="1605.00">
        <route edges="-E0 E2 E10 E11"/>
    </vehicle>
    <vehicle id="97" depart="1608.00">
        <route edges="-E2 E0 E5 -E4"/>
    </vehicle>
    <vehicle id="98" depart="1610.00">
        <route edges="E2 -E9 -E8 E4 -E5 -E7 -E6"/>
    </vehicle>
    <vehicle id="99" depart="1634.00">
        <route edges="E8 E9 E10 E11 -E1 E2"/>
    </vehicle>
    <vehicle id="100" depart="1641.00">
        <route edges="E10 E11 -E1 E0"/>
    </vehicle>
    <vehicle id="101" depart="1675.00">
        <route edges="-E11"/>
    </vehicle>
    <vehicle id="102" depart="1680.00">
        <route edges="E9 -E2 E0 -E7"/>
    </vehicle>
    <vehicle id="103" depart="1690.00">
        <route edges="E3 E4 -E5 -E0 E2 -E9"/>
    </vehicle>
    <vehicle id="104" depart="1715.00">
        <route edges="-E10 -E2"/>
    </vehicle>
    <vehicle id="105" depart="1728.00">
        <route edges="E8 E9 -E2 E1 -E11 -E10 -E9 -E8"/>
    </vehicle>
    <vehicle id="106" depart="1737.00">
        <route edges="-E10"/>
    </vehicle>
    <vehicle id="107" depart="1762.00">
        <route edges="E8 E9 -E2 E0 E5"/>
    </vehicle>
    <vehicle id="108" depart="1794.00">
        <route edges="-E9 -E8 E4 -E5 -E0"/>
    </vehicle>
    <vehicle id="109" depart="1802.00">
        <route edges="-E3 E1 -E11 -E10"/>
    </vehicle>
    <vehicle id="110" depart="1831.00">
        <route edges="E9 E10 E11 E6 E7 -E0"/>
    </vehicle>
    <vehicle id="111" depart="1835.00">
        <route edges="E3 E8"/>
    </vehicle>
    <vehicle id="112" depart="1885.00">
        <route edges="E3 E8 E9"/>
    </vehicle>
    <vehicle id="113" depart="1913.00">
        <route edges="-E4 E8"/>
    </vehicle>
    <vehicle id="114" depart="1931.00">
        <route edges="E0 -E7 -E6"/>
    </vehicle>
    <vehicle id="115" depart="1954.00">
        <route edges="-E3 E1 -E11 -E10 -E2"/>
    </vehicle>
    <vehicle id="116" depart="2006.00">
        <route edges="-E5 -E0 E2 -E9"/>
    </vehicle>
    <vehicle id="117" depart="2023.00">
        <route edges="E2 E10 E11 E6"/>
    </vehicle>
    <vehicle id="118" depart="2039.00">
        <route edges="E6 E7 -E0 E1 -E11 -E10"/>
    </vehicle>
    <vehicle id="119" depart="2055.00">
        <route edges="E9 E10"/>
    </vehicle>
    <vehicle id="120" depart="2096.00">
        <route edges="-E11 -E10 -E9 -E8 E4 -E5"/>
    </vehicle>
    <vehicle id="121" depart="2130.00">
        <route edges="E9 E10 E11"/>
    </vehicle>
    <vehicle id="122" depart="2163.00">
        <route edges="-E10 -E2"/>
    </vehicle>
    <vehicle id="123" depart="2168.00">
        <route edges="-E10 -E9 -E8 E4 -E5 -E0"/>
    </vehicle>
    <vehicle id="124" depart="2173.00">
        <route edges="-E11"/>
    </vehicle>
    <vehicle id="125" depart="2176.00">
        <route edges="E11 -E1 E3"/>
    </vehicle>
    <vehicle id="126" depart="2185.00">
        <route edges="-E4 E8 E9 -E2"/>
    </vehicle>
    <vehicle id="127" depart="2195.00">
        <route edges="E7 -E0 E3 E4 -E5 -E7 -E6"/>
    </vehicle>
    <vehicle id="128" depart="2219.00">
        <route edges="E5 -E4 E8"/>
    </vehicle>
    <vehicle id="129" depart="2226.00">
        <route edges="-E4 -E3 E0"/>
    </vehicle>
    <vehicle id="130" depart="2281.00">
        <route edges="E4 -E5 -E0 E2 -E9 -E8 -E3"/>
    </vehicle>
    <vehicle id="131" depart="2304.00">
        <route edges="-E9 -E8 -E3 E0 E5"/>
    </vehicle>
    <vehicle id="132" depart="2305.00">
        <route edges="E8 E9 -E2 E1 -E11 -E10 -E9"/>
    </vehicle>
    <vehicle id="133" depart="2315.00">
        <route edges="E2 E10 E11"/>
    </vehicle>
    <vehicle id="134" depart="2315.00">
        <route edges="-E9 -E8 -E3 E1 E6 E7"/>
    </vehicle>
    <vehicle id="135" depart="2322.00">
        <route edges="-E9 -E8 E4 -E5 -E0 E3 E8"/>
    </vehicle>
    <vehicle id="136" depart="2323.00">
        <route edges="-E4 E8"/>
    </vehicle>
    <vehicle id="137" depart="2342.00">
        <route edges="-E2 E0 -E7 -E6 -E1"/>
    </vehicle>
    <vehicle id="138" depart="2359.00">
        <route edges="-E7 -E6 -E1 E0 E5"/>
    </vehicle>
    <vehicle id="139" depart="2371.00">
        <route edges="E10 E11 -E1 E2"/>
    </vehicle>
    <vehicle id="140" depart="2379.00">
        <route edges="-E3"/>
    </vehicle>
    <vehicle id="141" depart="2388.00">
        <route edges="E6 E7"/>
    </vehicle>
    <vehicle id="142" depart="2388.00">
        <route edges="E2 -E9 -E8 E4 -E5 -E7"/>
    </vehicle>
    <vehicle id="143" depart="2423.00">
        <route edges="-E5 -E7 -E6 -E1 E0 E5"/>
    </vehicle>
    <vehicle id="144" depart="2434.00">
        <route edges="E5 -E4 -E3 E1 E6"/>
    </vehicle>
    <vehicle id="145" depart="2455.00">
        <route edges="-E11 -E10 -E2 E0 -E7 -E6 -E1"/>
    </vehicle>
    <vehicle id="146" depart="2473.00">
        <route edges="-E10 -E2 E3 E8"/>
    </vehicle>
    <vehicle id="147" depart="2477.00">
        <route edges="-E10 -E9 -E8 E4 -E5"/>
    </vehicle>
    <vehicle id="148" depart="2484.00">
        <route edges="E4"/>
    </vehicle>
    <vehicle id="149" depart="2519.00">
        <route edges="E6 E7 -E0 E2 E10 E11 -E1"/>
    </vehicle>
    <vehicle id="150" depart="2530.00">
        <route edges="-E7 -E6 -E11 -E10 -E2 E1 E6"/>
    </vehicle>
    <vehicle id="151" depart="2535.00">
        <route edges="E0 -E7 -E6 -E1 E3"/>
    </vehicle>
    <vehicle id="152" depart="2549.00">
        <route edges="E4 -E5 -E0 E2 E10 E11"/>
    </vehicle>
    <vehicle id="153" depart="2558.00">
        <route edges="-E1 E2"/>
    </vehicle>
    <vehicle id="154" depart="2569.00">
        <route edges="E1 -E11 -E10 -E2 E3 E8 E9"/>
    </vehicle>
    <vehicle id="155" depart="2570.00">
        <route edges="E10 E11 -E1 E3 E8 E9"/>
    </vehicle>
    <vehicle id="156" depart="2582.00">
        <route edges="-E6 -E1"/>
    </vehicle>
    <vehicle id="157" depart="2608.00">
        <route edges="-E1 E0"/>
    </vehicle>
    <vehicle id="158" depart="2634.00">
        <route edges="E3 E4 -E5 -E0 E1"/>
    </vehicle>
    <vehicle id="159" depart="2653.00">
        <route edges="E1 -E11 -E10 -E2 E0"/>
    </vehicle>
    <vehicle id="160" depart="2662.00">
        <route edges="-E5 -E0 E3 E8"/>
    </vehicle>
    <vehicle id="161" depart="2682.00">
        <route edges="-E7 -E6 -E1 E3 E8 E9"/>
    </vehicle>
    <vehicle id="162" depart="2691.00">
        <route edges="E0 -E7 -E6 -E11"/>
    </vehicle>
    <vehicle id="163" depart="2723.00">
        <route edges="E7 E5 -E4 E8 E9 -E2"/>
    </vehicle>
    <vehicle id="164" depart="2739.00">
        <route edges="-E11 -E10 -E2 E0"/>
    </vehicle>
    <vehicle id="165" depart="2761.00">
        <route edges="E1 E6"/>
    </vehicle>
    <vehicle id="166" depart="2775.00">
        <route edges="E10 E11 -E1 E2"/>
    </vehicle>
    <vehicle id="167" depart="2789.00">
        <route edges="-E6 -E1 E2 E10"/>
    </vehicle>
    <vehicle id="168" depart="2805.00">
        <route edges="-E11 -E10 -E2"/>
    </vehicle>
    <vehicle id="169" depart="2809.00">
        <route edges="E5 -E4 -E3 E2 -E9 -E8 E4"/>
    </vehicle>
    <vehicle id="170" depart="2812.00">
        <route edges="E9 -E2 E3 E8"/>
    </vehicle>
    <vehicle id="171" depart="2832.00">
        <route edges="E8 E9 -E2 E1 -E11"/>
    </vehicle>
    <vehicle id="172" depart="2844.00">
        <route edges="E9 E10 E11 E6 E7 -E0"/>
    </vehicle>
    <vehicle id="173" depart="2861.00">
        <route edges="E5 -E4 -E3 E2"/>
    </vehicle>
    <vehicle id="174" depart="2878.00">
        <route edges="-E6 -E1 E0 E5 -E4"/>
    </vehicle>
    <vehicle id="175" depart="2909.00">
        <route edges="E6 E7 E5 -E4"/>
    </vehicle>
    <vehicle id="176" depart="2931.00">
        <route edges="E4 -E5 -E0 E2 E10"/>
    </vehicle>
    <vehicle id="177" depart="2937.00">
        <route edges="-E8 -E3 E0 E5"/>
    </vehicle>
    <vehicle id="178" depart="2942.00">
        <route edges="E5 -E4 -E3 E1 E6 E7 -E0"/>
    </vehicle>
    <vehicle id="179" depart="2959.00">
        <route edges="-E6 -E11 -E10 -E9 -E8 -E3"/>
    </vehicle>
    <vehicle id="180" depart="2963.00">
        <route edges="-E11 -E10 -E2 E0 -E7 -E6"/>
    </vehicle>
    <vehicle id="181" depart="2987.00">
        <route edges="-E1 E3 E8 E9"/>
    </vehicle>
    <vehicle id="182" depart="2989.00">
        <route edges="-E2 E1"/>
    </vehicle>
    <vehicle id="183" depart="3015.00">
        <route edges="-E5 -E0 E2 -E9"/>
    </vehicle>
    <vehicle id="184" depart="3035.00">
        <route edges="-E10 -E9 -E8 E4 -E5"/>
    </vehicle>
    <vehicle id="185" depart="3051.00">
        <route edges="-E3 E0 E5"/>
    </vehicle>
    <vehicle id="186" depart="3080.00">
        <route edges="-E9 -E8 E4 -E5 -E7 -E6"/>
    </vehicle>
    <vehicle id="187" depart="3090.00">
        <route edges="-E6 -E1 E3"/>
    </vehicle>
    <vehicle id="188" depart="3093.00">
        <route edges="E9 E10 E11 E6"/>
    </vehicle>
    <vehicle id="189" depart="3108.00">
        <route edges="-E0 E1 E6 E7 E5 -E4"/>
    </vehicle>
    <vehicle id="190" depart="3110.00">
        <route edges="-E4 -E3 E0 -E7 -E6"/>
    </vehicle>
    <vehicle id="191" depart="3131.00">
        <route edges="E5 -E4 -E3 E1 E6"/>
    </vehicle>
    <vehicle id="192" depart="3140.00">
        <route edges="-E9 -E8 -E3 E2"/>
    </vehicle>
    <vehicle id="193" depart="3141.00">
        <route edges="E10 E11 -E1 E0 -E7 -E6 -E11 -E10"/>
    </vehicle>
    <vehicle id="194" depart="3154.00">
        <route edges="-E5 -E0 E2 E10 E11"/>
    </vehicle>
    <vehicle id="195" depart="3210.00">
        <route edges="-E1 E3 E4"/>
    </vehicle>
    <vehicle id="196" depart="3219.00">
        <route edges="E3 E8 E9 -E2 E0 E5"/>
    </vehicle>
    <vehicle id="197" depart="3252.00">
        <route edges="E5 -E4 E8"/>
    </vehicle>
    <vehicle id="198" depart="3301.00">
        <route edges="-E10 -E2 E0 E5 -E4"/>
    </vehicle>
    <vehicle id="199" depart="3330.00">
        <route edges="E5 -E4 -E3 E1 E6 E7 -E0"/>
    </vehicle>
    <vehicle id="200" depart="3343.00">
        <route edges="-E11 -E10 -E2 E0 -E7"/>
    </vehicle>
    <vehicle id="201" depart="3348.00">
        <route edges="-E1 E2 -E9 -E8 -E3 E1"/>
    </vehicle>
    <vehicle id="202" depart="3369.00">
        <route edges="E3 E8 E9 -E2 E0 E5"/>
    </vehicle>
    <vehicle id="203" depart="3376.00">
        <route edges="E8 E9 -E2 E1 -E11 -E10"/>
    </vehicle>
    <vehicle id="204" depart="3383.00">
        <route edges="E5 -E4 E8 E9 E10"/>
    </vehicle>
    <vehicle id="205" depart="3391.00">
        <route edges="-E9 -E8 E4 -E5 -E7"/>
    </vehicle>
    <vehicle id="206" depart="3402.00">
        <route edges="E2 -E9 -E8 E4"/>
    </vehicle>
    <vehicle id="207" depart="3419.00">
        <route edges="-E7 -E6 -E11"/>
    </vehicle>
    <vehicle id="208" depart="3450.00">
        <route edges="-E8 -E3 E0"/>
    </vehicle>
    <vehicle id="209" depart="3450.00">
        <route edges="-E5 -E7 -E6 -E11 -E10"/>
    </vehicle>
    <vehicle id="210" depart="3464.00">
        <route edges="E6"/>
    </vehicle>
    <vehicle id="211" depart="3471.00">
        <route edges="-E4 -E3 E0 -E7 -E6"/>
    </vehicle>
    <vehicle id="212" depart="3496.00">
        <route edges="-E8 E4 -E5 -E7 -E6"/>
    </vehicle>
    <vehicle id="213" depart="3499.00">
        <route edges="E5 -E4 -E3 E2 -E9 -E8"/>
    </vehicle>
    <vehicle id="214" depart="3511.00">
        <route edges="-E11 -E10 -E2 E1 E6 E7"/>
    </vehicle>
    <vehicle id="215" depart="3533.00">
        <route edges="-E5 -E0 E1"/>
    </vehicle>
    <vehicle id="216" depart="3548.00">
        <route edges="-E5 -E0 E2 E10 E11"/>
    </vehicle>
    <vehicle id="217" depart="3568.00">
        <route edges="-E7 -E6 -E11"/>
    </vehicle>
    <vehicle id="218" depart="3570.00">
        <route edges="-E5 -E7 -E6 -E1"/>
    </vehicle>
    <vehicle id="219" depart="3573.00">
        <route edges="-E6"/>
    </vehicle>
</routes>
