<?xml version="1.0" encoding="UTF-8"?>

<!-- generated on 2024-11-06 17:54:15 by Eclipse SUMO netedit Version 1.18.0
<configuration xmlns:xsi="http://www.w3.org/2001/XMLSchema-instance" xsi:noNamespaceSchemaLocation="http://sumo.dlr.de/xsd/neteditConfiguration.xsd">

    <input>
        <sumo-net-file value="/home/yanoe/Scrivania/simpnetw.net.xml"/>
    </input>

    <output>
        <output-file value="/home/yanoe/Scrivania/simpnetw.net.xml"/>
    </output>

    <processing>
        <offset.disable-normalization value="true"/>
    </processing>

    <junctions>
        <no-turnarounds value="true"/>
    </junctions>

    <netedit>
        <new-network value="false"/>
    </netedit>

</configuration>
-->

<net version="1.16" junctionCornerDetail="5" limitTurnSpeed="5.50" xmlns:xsi="http://www.w3.org/2001/XMLSchema-instance" xsi:noNamespaceSchemaLocation="http://sumo.dlr.de/xsd/net_file.xsd">

    <location netOffset="0.00,0.00" convBoundary="1.81,24.58,66.07,85.25" origBoundary="10000000000.00,10000000000.00,-10000000000.00,-10000000000.00" projParameter="!"/>

    <edge id=":J0_0" function="internal">
        <lane id=":J0_0_0" index="0" speed="6.60" length="9.15" shape="31.89,59.04 31.52,56.57 30.45,54.79 28.68,53.71 26.21,53.31"/>
    </edge>
    <edge id=":J0_1" function="internal">
        <lane id=":J0_1_0" index="0" speed="30.00" length="14.53" shape="31.89,59.04 31.97,44.51"/>
    </edge>
    <edge id=":J0_2" function="internal">
        <lane id=":J0_2_0" index="0" speed="8.02" length="4.16" shape="31.89,59.04 32.41,55.19 32.55,54.96"/>
    </edge>
    <edge id=":J0_12" function="internal">
        <lane id=":J0_12_0" index="0" speed="8.02" length="10.11" shape="32.55,54.96 34.06,52.43 36.82,50.75 40.70,50.17"/>
    </edge>
    <edge id=":J0_3" function="internal">
        <lane id=":J0_3_0" index="0" speed="6.53" length="9.10" shape="40.73,53.37 38.24,53.74 36.48,54.81 35.42,56.56 35.09,59.02"/>
    </edge>
    <edge id=":J0_4" function="internal">
        <lane id=":J0_4_0" index="0" speed="30.00" length="14.52" shape="40.73,53.37 26.21,53.31"/>
    </edge>
    <edge id=":J0_5" function="internal">
        <lane id=":J0_5_0" index="0" speed="7.95" length="4.18" shape="40.73,53.37 36.83,52.85 36.62,52.72"/>
    </edge>
    <edge id=":J0_13" function="internal">
        <lane id=":J0_13_0" index="0" speed="7.95" length="10.12" shape="36.62,52.72 34.07,51.19 32.45,48.42 31.97,44.51"/>
    </edge>
    <edge id=":J0_6" function="internal">
        <lane id=":J0_6_0" index="0" speed="6.45" length="9.03" shape="35.17,44.57 35.47,47.04 36.50,48.80 38.24,49.84 40.70,50.17"/>
    </edge>
    <edge id=":J0_7" function="internal">
        <lane id=":J0_7_0" index="0" speed="30.00" length="14.44" shape="35.17,44.57 35.09,59.02"/>
    </edge>
    <edge id=":J0_8" function="internal">
        <lane id=":J0_8_0" index="0" speed="8.03" length="3.93" shape="35.17,44.57 34.54,48.45"/>
    </edge>
    <edge id=":J0_14" function="internal">
        <lane id=":J0_14_0" index="0" speed="8.03" length="10.33" shape="34.54,48.45 32.84,51.20 30.07,52.82 26.21,53.31"/>
    </edge>
    <edge id=":J0_9" function="internal">
        <lane id=":J0_9_0" index="0" speed="6.54" length="9.11" shape="26.26,50.11 28.72,49.80 30.49,48.76 31.57,47.00 31.97,44.51"/>
    </edge>
    <edge id=":J0_10" function="internal">
        <lane id=":J0_10_0" index="0" speed="30.00" length="14.44" shape="26.26,50.11 40.70,50.17"/>
    </edge>
    <edge id=":J0_11" function="internal">
        <lane id=":J0_11_0" index="0" speed="8.08" length="3.88" shape="26.26,50.11 30.10,50.72"/>
    </edge>
    <edge id=":J0_15" function="internal">
        <lane id=":J0_15_0" index="0" speed="8.08" length="10.34" shape="30.10,50.72 32.85,52.41 34.51,55.18 35.09,59.02"/>
    </edge>
    <edge id=":J1_0" function="internal">
        <lane id=":J1_0_0" index="0" speed="13.89" length="13.92" shape="40.56,85.63 26.64,85.48"/>
    </edge>
    <edge id=":J1_1" function="internal">
        <lane id=":J1_1_0" index="0" speed="8.11" length="3.78" shape="40.56,85.63 36.85,84.92"/>
    </edge>
    <edge id=":J1_6" function="internal">
        <lane id=":J1_6_0" index="0" speed="8.11" length="10.20" shape="36.85,84.92 34.20,83.18 32.59,80.42 32.03,76.63"/>
    </edge>
    <edge id=":J1_2" function="internal">
        <lane id=":J1_2_0" index="0" speed="6.63" length="9.02" shape="35.23,76.61 35.59,79.06 36.62,80.85 38.33,81.98 40.71,82.44"/>
    </edge>
    <edge id=":J1_3" function="internal">
        <lane id=":J1_3_0" index="0" speed="8.00" length="14.03" shape="35.23,76.61 34.72,80.41 33.11,83.15 30.42,84.84 26.64,85.48"/>
    </edge>
    <edge id=":J1_4" function="internal">
        <lane id=":J1_4_0" index="0" speed="6.51" length="8.93" shape="26.56,82.28 28.97,81.87 30.68,80.80 31.70,79.05 32.03,76.63"/>
    </edge>
    <edge id=":J1_5" function="internal">
        <lane id=":J1_5_0" index="0" speed="13.89" length="14.15" shape="26.56,82.28 40.71,82.44"/>
    </edge>
    <edge id=":J2_0" function="internal">
        <lane id=":J2_0_0" index="0" speed="6.49" length="9.03" shape="64.47,58.80 64.12,56.34 63.07,54.60 61.32,53.56 58.86,53.23"/>
    </edge>
    <edge id=":J2_1" function="internal">
        <lane id=":J2_1_0" index="0" speed="13.89" length="14.40" shape="64.47,58.80 64.47,44.40"/>
    </edge>
    <edge id=":J2_2" function="internal">
        <lane id=":J2_2_0" index="0" speed="13.89" length="14.40" shape="67.67,44.40 67.67,58.80"/>
    </edge>
    <edge id=":J2_3" function="internal">
        <lane id=":J2_3_0" index="0" speed="8.03" length="4.05" shape="67.67,44.40 67.12,48.23 67.03,48.39"/>
    </edge>
    <edge id=":J2_6" function="internal">
        <lane id=":J2_6_0" index="0" speed="8.03" length="10.15" shape="67.03,48.39 65.47,50.99 62.72,52.65 58.86,53.23"/>
    </edge>
    <edge id=":J2_4" function="internal">
        <lane id=":J2_4_0" index="0" speed="6.54" length="9.07" shape="58.84,50.03 61.30,49.66 63.06,48.60 64.12,46.84 64.47,44.40"/>
    </edge>
    <edge id=":J2_5" function="internal">
        <lane id=":J2_5_0" index="0" speed="7.99" length="14.22" shape="58.84,50.03 62.70,50.55 65.46,52.19 67.12,54.93 67.67,58.80"/>
    </edge>
    <edge id=":J3_0" function="internal">
        <lane id=":J3_0_0" index="0" speed="6.58" length="9.13" shape="41.08,26.18 38.64,26.54 36.88,27.60 35.80,29.38 35.40,31.87"/>
    </edge>
    <edge id=":J3_1" function="internal">
        <lane id=":J3_1_0" index="0" speed="13.89" length="14.40" shape="41.08,26.18 26.68,26.18"/>
    </edge>
    <edge id=":J3_2" function="internal">
        <lane id=":J3_2_0" index="0" speed="13.89" length="14.40" shape="26.68,22.98 41.08,22.98"/>
    </edge>
    <edge id=":J3_3" function="internal">
        <lane id=":J3_3_0" index="0" speed="7.97" length="4.08" shape="26.68,22.98 30.56,23.54 30.70,23.62"/>
    </edge>
    <edge id=":J3_6" function="internal">
        <lane id=":J3_6_0" index="0" speed="7.97" length="10.18" shape="30.70,23.62 33.31,25.20 34.92,27.98 35.40,31.87"/>
    </edge>
    <edge id=":J3_4" function="internal">
        <lane id=":J3_4_0" index="0" speed="6.47" length="9.03" shape="32.20,31.81 31.90,29.35 30.88,27.59 29.14,26.53 26.68,26.18"/>
    </edge>
    <edge id=":J3_5" function="internal">
        <lane id=":J3_5_0" index="0" speed="8.06" length="14.22" shape="32.20,31.81 32.82,27.95 34.51,25.19 37.26,23.53 41.08,22.98"/>
    </edge>
    <edge id=":J4_0" function="internal">
        <lane id=":J4_0_0" index="0" speed="13.89" length="14.40" shape="0.21,58.57 0.21,44.17"/>
    </edge>
    <edge id=":J4_1" function="internal">
        <lane id=":J4_1_0" index="0" speed="7.97" length="4.08" shape="0.21,58.57 0.76,54.69 0.85,54.55"/>
    </edge>
    <edge id=":J4_6" function="internal">
        <lane id=":J4_6_0" index="0" speed="7.97" length="10.18" shape="0.85,54.55 2.43,51.94 5.20,50.32 9.08,49.83"/>
    </edge>
    <edge id=":J4_2" function="internal">
        <lane id=":J4_2_0" index="0" speed="6.47" length="9.03" shape="9.03,53.03 6.57,53.34 4.81,54.37 3.76,56.11 3.41,58.57"/>
    </edge>
    <edge id=":J4_3" function="internal">
        <lane id=":J4_3_0" index="0" speed="8.05" length="14.21" shape="9.03,53.03 5.17,52.42 2.41,50.74 0.76,47.99 0.21,44.17"/>
    </edge>
    <edge id=":J4_4" function="internal">
        <lane id=":J4_4_0" index="0" speed="6.57" length="9.11" shape="3.41,44.17 3.76,46.61 4.83,48.37 6.60,49.44 9.08,49.83"/>
    </edge>
    <edge id=":J4_5" function="internal">
        <lane id=":J4_5_0" index="0" speed="13.89" length="14.40" shape="3.41,44.17 3.41,58.57"/>
    </edge>
    <edge id=":J5_0" function="internal">
        <lane id=":J5_0_0" index="0" speed="6.07" length="7.88" shape="5.12,86.00 2.97,85.74 1.44,84.86 0.51,83.34 0.21,81.20"/>
    </edge>
    <edge id=":J5_1" function="internal">
        <lane id=":J5_1_0" index="0" speed="3.90" length="2.63" shape="3.41,81.20 3.51,81.91 3.82,82.42 4.33,82.71 5.05,82.80"/>
    </edge>
    <edge id=":J6_0" function="internal">
        <lane id=":J6_0_0" index="0" speed="6.07" length="8.01" shape="67.67,81.89 67.36,84.08 66.42,85.61 64.85,86.48 62.65,86.69"/>
    </edge>
    <edge id=":J6_1" function="internal">
        <lane id=":J6_1_0" index="0" speed="3.90" length="2.67" shape="62.80,83.49 63.53,83.42 64.06,83.13 64.37,82.62 64.47,81.89"/>
    </edge>
    <edge id=":J7_0" function="internal">
        <lane id=":J7_0_0" index="0" speed="6.08" length="7.74" shape="0.21,27.78 0.51,25.68 1.41,24.18 2.91,23.28 5.01,22.98"/>
    </edge>
    <edge id=":J7_1" function="internal">
        <lane id=":J7_1_0" index="0" speed="3.90" length="2.58" shape="5.01,26.18 4.31,26.28 3.81,26.58 3.51,27.08 3.41,27.78"/>
    </edge>
    <edge id=":J8_0" function="internal">
        <lane id=":J8_0_0" index="0" speed="3.90" length="2.58" shape="64.47,27.78 64.37,27.08 64.07,26.58 63.57,26.28 62.87,26.18"/>
    </edge>
    <edge id=":J8_1" function="internal">
        <lane id=":J8_1_0" index="0" speed="6.08" length="7.74" shape="62.87,22.98 64.97,23.28 66.47,24.18 67.37,25.68 67.67,27.78"/>
    </edge>

    <edge id="-E0" from="J1" to="J0" priority="-1">
        <lane id="-E0_0" index="0" speed="30.00" length="17.59" shape="32.03,76.63 31.89,59.04"/>
    </edge>
    <edge id="-E1" from="J2" to="J0" priority="-1">
        <lane id="-E1_0" index="0" speed="30.00" length="18.13" shape="58.86,53.23 40.73,53.37"/>
    </edge>
    <edge id="-E10" from="J8" to="J3" priority="-1">
        <lane id="-E10_0" index="0" speed="13.89" length="21.79" shape="62.87,26.18 41.08,26.18"/>
    </edge>
    <edge id="-E11" from="J2" to="J8" priority="-1">
        <lane id="-E11_0" index="0" speed="13.89" length="16.62" shape="64.47,44.40 64.47,27.78"/>
    </edge>
    <edge id="-E2" from="J3" to="J0" priority="-1">
        <lane id="-E2_0" index="0" speed="30.00" length="12.71" shape="35.40,31.87 35.17,44.57"/>
    </edge>
    <edge id="-E3" from="J4" to="J0" priority="-1">
        <lane id="-E3_0" index="0" speed="30.00" length="17.18" shape="9.08,49.83 26.26,50.11"/>
    </edge>
    <edge id="-E4" from="J5" to="J4" priority="-1">
        <lane id="-E4_0" index="0" speed="13.89" length="22.63" shape="0.21,81.20 0.21,58.57"/>
    </edge>
    <edge id="-E5" from="J5" to="J1" priority="-1">
        <lane id="-E5_0" index="0" speed="13.89" length="21.52" shape="5.05,82.80 26.56,82.28"/>
    </edge>
    <edge id="-E6" from="J6" to="J2" priority="-1">
        <lane id="-E6_0" index="0" speed="13.89" length="23.09" shape="64.47,81.89 64.47,58.80"/>
    </edge>
    <edge id="-E7" from="J1" to="J6" priority="-1">
        <lane id="-E7_0" index="0" speed="13.89" length="22.11" shape="40.71,82.44 62.80,83.49"/>
    </edge>
    <edge id="-E8" from="J7" to="J4" priority="-1">
        <lane id="-E8_0" index="0" speed="13.89" length="16.39" shape="3.41,27.78 3.41,44.17"/>
    </edge>
    <edge id="-E9" from="J3" to="J7" priority="-1">
        <lane id="-E9_0" index="0" speed="13.89" length="21.67" shape="26.68,26.18 5.01,26.18"/>
    </edge>
    <edge id="E0" from="J0" to="J1" priority="-1">
        <lane id="E0_0" index="0" speed="30.00" length="17.59" shape="35.09,59.02 35.23,76.61"/>
    </edge>
    <edge id="E1" from="J0" to="J2" priority="-1">
        <lane id="E1_0" index="0" speed="30.00" length="18.13" shape="40.70,50.17 58.84,50.03"/>
    </edge>
    <edge id="E10" from="J3" to="J8" priority="-1">
        <lane id="E10_0" index="0" speed="13.89" length="21.79" shape="41.08,22.98 62.87,22.98"/>
    </edge>
    <edge id="E11" from="J8" to="J2" priority="-1">
        <lane id="E11_0" index="0" speed="13.89" length="16.62" shape="67.67,27.78 67.67,44.40"/>
    </edge>
    <edge id="E2" from="J0" to="J3" priority="-1">
        <lane id="E2_0" index="0" speed="30.00" length="12.71" shape="31.97,44.51 32.20,31.81"/>
    </edge>
    <edge id="E3" from="J0" to="J4" priority="-1">
        <lane id="E3_0" index="0" speed="30.00" length="17.18" shape="26.21,53.31 9.03,53.03"/>
    </edge>
    <edge id="E4" from="J4" to="J5" priority="-1">
        <lane id="E4_0" index="0" speed="13.89" length="22.63" shape="3.41,58.57 3.41,81.20"/>
    </edge>
    <edge id="E5" from="J1" to="J5" priority="-1">
        <lane id="E5_0" index="0" speed="13.89" length="21.52" shape="26.64,85.48 5.12,86.00"/>
    </edge>
    <edge id="E6" from="J2" to="J6" priority="-1">
        <lane id="E6_0" index="0" speed="13.89" length="23.09" shape="67.67,58.80 67.67,81.89"/>
    </edge>
    <edge id="E7" from="J6" to="J1" priority="-1">
        <lane id="E7_0" index="0" speed="13.89" length="22.11" shape="62.65,86.69 40.56,85.63"/>
    </edge>
    <edge id="E8" from="J4" to="J7" priority="-1">
        <lane id="E8_0" index="0" speed="13.89" length="16.39" shape="0.21,44.17 0.21,27.78"/>
    </edge>
    <edge id="E9" from="J7" to="J3" priority="-1">
        <lane id="E9_0" index="0" speed="13.89" length="21.67" shape="5.01,22.98 26.68,22.98"/>
    </edge>

    <tlLogic id="J0" type="static" programID="0" offset="0">
        <phase duration="39" state="rrrGGgrrrGGg"/>
        <phase duration="6"  state="rrryyyrrryyy"/>
        <phase duration="39" state="GGgrrrGGgrrr"/>
        <phase duration="6"  state="yyyrrryyyrrr"/>
    </tlLogic>
    <tlLogic id="J1" type="static" programID="0" offset="0">
        <phase duration="39" state="GgrrGG"/>
        <phase duration="6"  state="yyrryy"/>
        <phase duration="39" state="rrGGGr"/>
        <phase duration="6"  state="rryyyr"/>
    </tlLogic>
    <tlLogic id="J2" type="static" programID="0" offset="0">
        <phase duration="39" state="GGGgrr"/>
        <phase duration="6"  state="yyyyrr"/>
        <phase duration="39" state="GrrrGG"/>
        <phase duration="6"  state="yrrryy"/>
    </tlLogic>
    <tlLogic id="J3" type="static" programID="0" offset="0">
        <phase duration="39" state="GGGgrr"/>
        <phase duration="6"  state="yyyyrr"/>
        <phase duration="39" state="GrrrGG"/>
        <phase duration="6"  state="yrrryy"/>
    </tlLogic>
    <tlLogic id="J4" type="static" programID="0" offset="0">
        <phase duration="39" state="GgrrGG"/>
        <phase duration="6"  state="yyrryy"/>
        <phase duration="39" state="rrGGGr"/>
        <phase duration="6"  state="rryyyr"/>
    </tlLogic>

    <junction id="J0" type="traffic_light" x="33.43" y="51.83" incLanes="-E0_0 -E1_0 -E2_0 -E3_0" intLanes=":J0_0_0 :J0_1_0 :J0_12_0 :J0_3_0 :J0_4_0 :J0_13_0 :J0_6_0 :J0_7_0 :J0_14_0 :J0_9_0 :J0_10_0 :J0_15_0" shape="30.29,59.06 36.69,59.00 37.12,56.78 37.68,56.00 38.47,55.43 39.49,55.09 40.74,54.97 40.69,48.57 38.48,48.15 37.71,47.60 37.17,46.82 36.85,45.83 36.77,44.60 30.37,44.49 29.88,46.75 29.31,47.54 28.52,48.09 27.52,48.42 26.29,48.51 26.19,54.91 28.45,55.40 29.25,55.98 29.82,56.78 30.16,57.81">
        <request index="0"  response="000000010000" foes="000100010000" cont="0"/>
        <request index="1"  response="111000110000" foes="111100110000" cont="0"/>
        <request index="2"  response="110111110000" foes="110111110000" cont="1"/>
        <request index="3"  response="000000000000" foes="100010000000" cont="0"/>
        <request index="4"  response="000100000100" foes="100110000111" cont="0"/>
        <request index="5"  response="111100000100" foes="111110000110" cont="1"/>
        <request index="6"  response="010000000000" foes="010000000100" cont="0"/>
        <request index="7"  response="110000111000" foes="110000111100" cont="0"/>
        <request index="8"  response="110000110011" foes="110000110111" cont="1"/>
        <request index="9"  response="000000000000" foes="000000100010" cont="0"/>
        <request index="10" response="000100000100" foes="000111100110" cont="0"/>
        <request index="11" response="000100011100" foes="000110111110" cont="1"/>
    </junction>
    <junction id="J1" type="traffic_light" x="33.68" y="83.71" incLanes="E7_0 E0_0 -E5_0" intLanes=":J1_0_0 :J1_6_0 :J1_2_0 :J1_3_0 :J1_4_0 :J1_5_0" shape="40.49,87.23 40.79,80.84 38.60,80.29 37.83,79.69 37.28,78.87 36.95,77.84 36.83,76.60 30.43,76.65 30.01,78.84 29.47,79.62 28.71,80.19 27.73,80.54 26.52,80.68 26.68,87.08">
        <request index="0" response="000000" foes="001000" cont="0"/>
        <request index="1" response="110000" foes="111000" cont="1"/>
        <request index="2" response="100000" foes="100000" cont="0"/>
        <request index="3" response="100011" foes="100011" cont="0"/>
        <request index="4" response="000000" foes="000010" cont="0"/>
        <request index="5" response="000000" foes="001110" cont="0"/>
    </junction>
    <junction id="J2" type="traffic_light" x="66.07" y="51.57" incLanes="-E6_0 E11_0 E1_0" intLanes=":J2_0_0 :J2_1_0 :J2_2_0 :J2_6_0 :J2_4_0 :J2_5_0" shape="62.87,58.80 69.27,58.80 69.27,44.40 62.87,44.40 62.42,46.62 61.86,47.40 61.07,47.97 60.06,48.31 58.82,48.43 58.87,54.83 61.10,55.26 61.87,55.80 62.43,56.58 62.76,57.58">
        <request index="0" response="000000" foes="001000" cont="0"/>
        <request index="1" response="000000" foes="111000" cont="0"/>
        <request index="2" response="000000" foes="100000" cont="0"/>
        <request index="3" response="000011" foes="100011" cont="1"/>
        <request index="4" response="000010" foes="000010" cont="0"/>
        <request index="5" response="001110" foes="001110" cont="0"/>
    </junction>
    <junction id="J3" type="traffic_light" x="33.94" y="24.58" incLanes="-E10_0 E9_0 E2_0" intLanes=":J3_0_0 :J3_1_0 :J3_2_0 :J3_6_0 :J3_4_0 :J3_5_0" shape="41.08,27.78 41.08,21.38 26.68,21.38 26.68,27.78 28.89,28.22 29.66,28.78 30.20,29.56 30.52,30.56 30.60,31.78 37.00,31.90 37.49,29.61 38.06,28.81 38.85,28.24 39.86,27.89">
        <request index="0" response="000000" foes="001000" cont="0"/>
        <request index="1" response="000000" foes="111000" cont="0"/>
        <request index="2" response="000000" foes="100000" cont="0"/>
        <request index="3" response="000011" foes="100011" cont="1"/>
        <request index="4" response="000010" foes="000010" cont="0"/>
        <request index="5" response="001110" foes="001110" cont="0"/>
    </junction>
    <junction id="J4" type="traffic_light" x="1.81" y="51.31" incLanes="-E4_0 E3_0 -E8_0" intLanes=":J4_0_0 :J4_6_0 :J4_2_0 :J4_3_0 :J4_4_0 :J4_5_0" shape="-1.39,58.57 5.01,58.57 5.45,56.35 6.01,55.58 6.78,55.04 7.78,54.72 9.01,54.63 9.11,48.23 6.83,47.75 6.03,47.18 5.46,46.40 5.12,45.39 5.01,44.17 -1.39,44.17">
        <request index="0" response="000000" foes="001000" cont="0"/>
        <request index="1" response="110000" foes="111000" cont="1"/>
        <request index="2" response="100000" foes="100000" cont="0"/>
        <request index="3" response="100011" foes="100011" cont="0"/>
        <request index="4" response="000000" foes="000010" cont="0"/>
        <request index="5" response="000000" foes="001110" cont="0"/>
    </junction>
    <junction id="J5" type="priority" x="1.81" y="84.48" incLanes="E5_0 E4_0" intLanes=":J5_0_0 :J5_1_0" shape="5.16,87.60 5.01,81.20 -1.39,81.20 -1.21,83.20 -0.66,84.82 0.25,86.08 1.52,86.96 3.16,87.46">
        <request index="0" response="00" foes="00" cont="0"/>
        <request index="1" response="00" foes="00" cont="0"/>
    </junction>
    <junction id="J6" type="priority" x="66.07" y="85.25" incLanes="E6_0 -E7_0" intLanes=":J6_0_0 :J6_1_0" shape="69.27,81.89 62.87,81.89 62.57,88.28 64.62,88.20 66.29,87.72 67.60,86.85 68.53,85.58 69.09,83.93">
        <request index="0" response="00" foes="00" cont="0"/>
        <request index="1" response="00" foes="00" cont="0"/>
    </junction>
    <junction id="J7" type="priority" x="1.81" y="24.58" incLanes="E8_0 -E9_0" intLanes=":J7_0_0 :J7_1_0" shape="-1.39,27.78 5.01,27.78 5.01,21.38 1.45,22.09 0.21,22.98 -0.68,24.22 -1.21,25.82">
        <request index="0" response="00" foes="00" cont="0"/>
        <request index="1" response="00" foes="00" cont="0"/>
    </junction>
    <junction id="J8" type="priority" x="66.07" y="24.58" incLanes="-E11_0 E10_0" intLanes=":J8_0_0 :J8_1_0" shape="62.87,27.78 69.27,27.78 68.56,24.22 67.67,22.98 66.43,22.09 64.83,21.56 62.87,21.38">
        <request index="0" response="00" foes="00" cont="0"/>
        <request index="1" response="00" foes="00" cont="0"/>
    </junction>

    <junction id=":J0_12_0" type="internal" x="32.55" y="54.96" incLanes=":J0_2_0 -E2_0" intLanes=":J0_4_0 :J0_5_0 :J0_6_0 :J0_7_0 :J0_10_0 :J0_11_0"/>
    <junction id=":J0_13_0" type="internal" x="36.62" y="52.72" incLanes=":J0_5_0 -E3_0" intLanes=":J0_1_0 :J0_2_0 :J0_7_0 :J0_8_0 :J0_9_0 :J0_10_0"/>
    <junction id=":J0_14_0" type="internal" x="34.54" y="48.45" incLanes=":J0_8_0 -E0_0" intLanes=":J0_0_0 :J0_1_0 :J0_4_0 :J0_5_0 :J0_10_0 :J0_11_0"/>
    <junction id=":J0_15_0" type="internal" x="30.10" y="50.72" incLanes=":J0_11_0 -E1_0" intLanes=":J0_1_0 :J0_2_0 :J0_3_0 :J0_4_0 :J0_7_0 :J0_8_0"/>
    <junction id=":J1_6_0" type="internal" x="36.85" y="84.92" incLanes=":J1_1_0 -E5_0" intLanes=":J1_3_0 :J1_4_0 :J1_5_0"/>
    <junction id=":J2_6_0" type="internal" x="67.03" y="48.39" incLanes=":J2_3_0 -E6_0" intLanes=":J2_0_0 :J2_1_0 :J2_5_0"/>
    <junction id=":J3_6_0" type="internal" x="30.70" y="23.62" incLanes=":J3_3_0 -E10_0" intLanes=":J3_0_0 :J3_1_0 :J3_5_0"/>
    <junction id=":J4_6_0" type="internal" x="0.85" y="54.55" incLanes=":J4_1_0 -E8_0" intLanes=":J4_3_0 :J4_4_0 :J4_5_0"/>

    <connection from="-E0" to="E3" fromLane="0" toLane="0" via=":J0_0_0" tl="J0" linkIndex="0" dir="r" state="o"/>
    <connection from="-E0" to="E2" fromLane="0" toLane="0" via=":J0_1_0" tl="J0" linkIndex="1" dir="s" state="o"/>
    <connection from="-E0" to="E1" fromLane="0" toLane="0" via=":J0_2_0" tl="J0" linkIndex="2" dir="l" state="o"/>
    <connection from="-E1" to="E0" fromLane="0" toLane="0" via=":J0_3_0" tl="J0" linkIndex="3" dir="r" state="O"/>
    <connection from="-E1" to="E3" fromLane="0" toLane="0" via=":J0_4_0" tl="J0" linkIndex="4" dir="s" state="O"/>
    <connection from="-E1" to="E2" fromLane="0" toLane="0" via=":J0_5_0" tl="J0" linkIndex="5" dir="l" state="o"/>
    <connection from="-E10" to="-E2" fromLane="0" toLane="0" via=":J3_0_0" tl="J3" linkIndex="0" dir="r" state="O"/>
    <connection from="-E10" to="-E9" fromLane="0" toLane="0" via=":J3_1_0" tl="J3" linkIndex="1" dir="s" state="O"/>
    <connection from="-E11" to="-E10" fromLane="0" toLane="0" via=":J8_0_0" dir="r" state="M"/>
    <connection from="-E2" to="E1" fromLane="0" toLane="0" via=":J0_6_0" tl="J0" linkIndex="6" dir="r" state="o"/>
    <connection from="-E2" to="E0" fromLane="0" toLane="0" via=":J0_7_0" tl="J0" linkIndex="7" dir="s" state="o"/>
    <connection from="-E2" to="E3" fromLane="0" toLane="0" via=":J0_8_0" tl="J0" linkIndex="8" dir="l" state="o"/>
    <connection from="-E3" to="E2" fromLane="0" toLane="0" via=":J0_9_0" tl="J0" linkIndex="9" dir="r" state="O"/>
    <connection from="-E3" to="E1" fromLane="0" toLane="0" via=":J0_10_0" tl="J0" linkIndex="10" dir="s" state="O"/>
    <connection from="-E3" to="E0" fromLane="0" toLane="0" via=":J0_11_0" tl="J0" linkIndex="11" dir="l" state="o"/>
    <connection from="-E4" to="E8" fromLane="0" toLane="0" via=":J4_0_0" tl="J4" linkIndex="0" dir="s" state="O"/>
    <connection from="-E4" to="-E3" fromLane="0" toLane="0" via=":J4_1_0" tl="J4" linkIndex="1" dir="l" state="o"/>
    <connection from="-E5" to="-E0" fromLane="0" toLane="0" via=":J1_4_0" tl="J1" linkIndex="4" dir="r" state="O"/>
    <connection from="-E5" to="-E7" fromLane="0" toLane="0" via=":J1_5_0" tl="J1" linkIndex="5" dir="s" state="O"/>
    <connection from="-E6" to="-E1" fromLane="0" toLane="0" via=":J2_0_0" tl="J2" linkIndex="0" dir="r" state="O"/>
    <connection from="-E6" to="-E11" fromLane="0" toLane="0" via=":J2_1_0" tl="J2" linkIndex="1" dir="s" state="O"/>
    <connection from="-E7" to="-E6" fromLane="0" toLane="0" via=":J6_1_0" dir="r" state="M"/>
    <connection from="-E8" to="-E3" fromLane="0" toLane="0" via=":J4_4_0" tl="J4" linkIndex="4" dir="r" state="O"/>
    <connection from="-E8" to="E4" fromLane="0" toLane="0" via=":J4_5_0" tl="J4" linkIndex="5" dir="s" state="O"/>
    <connection from="-E9" to="-E8" fromLane="0" toLane="0" via=":J7_1_0" dir="r" state="M"/>
    <connection from="E0" to="-E7" fromLane="0" toLane="0" via=":J1_2_0" tl="J1" linkIndex="2" dir="r" state="o"/>
    <connection from="E0" to="E5" fromLane="0" toLane="0" via=":J1_3_0" tl="J1" linkIndex="3" dir="l" state="o"/>
    <connection from="E1" to="-E11" fromLane="0" toLane="0" via=":J2_4_0" tl="J2" linkIndex="4" dir="r" state="o"/>
    <connection from="E1" to="E6" fromLane="0" toLane="0" via=":J2_5_0" tl="J2" linkIndex="5" dir="l" state="o"/>
    <connection from="E10" to="E11" fromLane="0" toLane="0" via=":J8_1_0" dir="l" state="M"/>
    <connection from="E11" to="E6" fromLane="0" toLane="0" via=":J2_2_0" tl="J2" linkIndex="2" dir="s" state="O"/>
    <connection from="E11" to="-E1" fromLane="0" toLane="0" via=":J2_3_0" tl="J2" linkIndex="3" dir="l" state="o"/>
    <connection from="E2" to="-E9" fromLane="0" toLane="0" via=":J3_4_0" tl="J3" linkIndex="4" dir="r" state="o"/>
    <connection from="E2" to="E10" fromLane="0" toLane="0" via=":J3_5_0" tl="J3" linkIndex="5" dir="l" state="o"/>
    <connection from="E3" to="E4" fromLane="0" toLane="0" via=":J4_2_0" tl="J4" linkIndex="2" dir="r" state="o"/>
    <connection from="E3" to="E8" fromLane="0" toLane="0" via=":J4_3_0" tl="J4" linkIndex="3" dir="l" state="o"/>
    <connection from="E4" to="-E5" fromLane="0" toLane="0" via=":J5_1_0" dir="r" state="M"/>
    <connection from="E5" to="-E4" fromLane="0" toLane="0" via=":J5_0_0" dir="l" state="M"/>
    <connection from="E6" to="E7" fromLane="0" toLane="0" via=":J6_0_0" dir="l" state="M"/>
    <connection from="E7" to="E5" fromLane="0" toLane="0" via=":J1_0_0" tl="J1" linkIndex="0" dir="s" state="O"/>
    <connection from="E7" to="-E0" fromLane="0" toLane="0" via=":J1_1_0" tl="J1" linkIndex="1" dir="l" state="o"/>
    <connection from="E8" to="E9" fromLane="0" toLane="0" via=":J7_0_0" dir="l" state="M"/>
    <connection from="E9" to="E10" fromLane="0" toLane="0" via=":J3_2_0" tl="J3" linkIndex="2" dir="s" state="O"/>
    <connection from="E9" to="-E2" fromLane="0" toLane="0" via=":J3_3_0" tl="J3" linkIndex="3" dir="l" state="o"/>

    <connection from=":J0_0" to="E3" fromLane="0" toLane="0" dir="r" state="M"/>
    <connection from=":J0_1" to="E2" fromLane="0" toLane="0" dir="s" state="M"/>
    <connection from=":J0_2" to="E1" fromLane="0" toLane="0" via=":J0_12_0" dir="l" state="m"/>
    <connection from=":J0_12" to="E1" fromLane="0" toLane="0" dir="l" state="M"/>
    <connection from=":J0_3" to="E0" fromLane="0" toLane="0" dir="r" state="M"/>
    <connection from=":J0_4" to="E3" fromLane="0" toLane="0" dir="s" state="M"/>
    <connection from=":J0_5" to="E2" fromLane="0" toLane="0" via=":J0_13_0" dir="l" state="m"/>
    <connection from=":J0_13" to="E2" fromLane="0" toLane="0" dir="l" state="M"/>
    <connection from=":J0_6" to="E1" fromLane="0" toLane="0" dir="r" state="M"/>
    <connection from=":J0_7" to="E0" fromLane="0" toLane="0" dir="s" state="M"/>
    <connection from=":J0_8" to="E3" fromLane="0" toLane="0" via=":J0_14_0" dir="l" state="m"/>
    <connection from=":J0_14" to="E3" fromLane="0" toLane="0" dir="l" state="M"/>
    <connection from=":J0_9" to="E2" fromLane="0" toLane="0" dir="r" state="M"/>
    <connection from=":J0_10" to="E1" fromLane="0" toLane="0" dir="s" state="M"/>
    <connection from=":J0_11" to="E0" fromLane="0" toLane="0" via=":J0_15_0" dir="l" state="m"/>
    <connection from=":J0_15" to="E0" fromLane="0" toLane="0" dir="l" state="M"/>
    <connection from=":J1_0" to="E5" fromLane="0" toLane="0" dir="s" state="M"/>
    <connection from=":J1_1" to="-E0" fromLane="0" toLane="0" via=":J1_6_0" dir="l" state="m"/>
    <connection from=":J1_6" to="-E0" fromLane="0" toLane="0" dir="l" state="M"/>
    <connection from=":J1_2" to="-E7" fromLane="0" toLane="0" dir="r" state="M"/>
    <connection from=":J1_3" to="E5" fromLane="0" toLane="0" dir="l" state="M"/>
    <connection from=":J1_4" to="-E0" fromLane="0" toLane="0" dir="r" state="M"/>
    <connection from=":J1_5" to="-E7" fromLane="0" toLane="0" dir="s" state="M"/>
    <connection from=":J2_0" to="-E1" fromLane="0" toLane="0" dir="r" state="M"/>
    <connection from=":J2_1" to="-E11" fromLane="0" toLane="0" dir="s" state="M"/>
    <connection from=":J2_2" to="E6" fromLane="0" toLane="0" dir="s" state="M"/>
    <connection from=":J2_3" to="-E1" fromLane="0" toLane="0" via=":J2_6_0" dir="l" state="m"/>
    <connection from=":J2_6" to="-E1" fromLane="0" toLane="0" dir="l" state="M"/>
    <connection from=":J2_4" to="-E11" fromLane="0" toLane="0" dir="r" state="M"/>
    <connection from=":J2_5" to="E6" fromLane="0" toLane="0" dir="l" state="M"/>
    <connection from=":J3_0" to="-E2" fromLane="0" toLane="0" dir="r" state="M"/>
    <connection from=":J3_1" to="-E9" fromLane="0" toLane="0" dir="s" state="M"/>