<?xml version="1.0" encoding="UTF-8"?>

<!-- generated on 2024-11-06 20:43:00.732683 by randomTrips.py UNKNOWN
<configuration>
    <net-file value="simpnetw.net.xml"/>
    <period value="15.0"/>
    <binomial value="3"/>
</configuration>
-->

<routes xmlns:xsi="http://www.w3.org/2001/XMLSchema-instance" xsi:noNamespaceSchemaLocation="http://sumo.dlr.de/xsd/routes_file.xsd">
    <trip id="0" depart="6.00" from="E5" to="E2"/>
    <trip id="1" depart="32.00" from="E3" to="E2"/>
    <trip id="2" depart="40.00" from="-E5" to="-E0"/>
    <trip id="3" depart="87.00" from="E5" to="-E5"/>
    <trip id="4" depart="94.00" from="E4" to="E11"/>
    <trip id="5" depart="95.00" from="-E1" to="E7"/>
    <trip id="6" depart="118.00" from="E8" to="E0"/>
    <trip id="7" depart="126.00" from="-E4" to="-E8"/>
    <trip id="8" depart="137.00" from="E4" to="E4"/>
    <trip id="9" depart="154.00" from="-E6" to="E4"/>
    <trip id="10" depart="166.00" from="E0" to="E9"/>
    <trip id="11" depart="168.00" from="-E11" to="-E11"/>
    <trip id="12" depart="191.00" from="E8" to="-E10"/>
    <trip id="13" depart="203.00" from="E0" to="-E4"/>
    <trip id="14" depart="218.00" from="-E8" to="E10"/>
    <trip id="15" depart="284.00" from="E5" to="E7"/>
    <trip id="16" depart="308.00" from="E0" to="-E8"/>
    <trip id="17" depart="326.00" from="E4" to="-E3"/>
    <trip id="18" depart="330.00" from="E6" to="-E11"/>
    <trip id="19" depart="332.00" from="E4" to="-E3"/>
    <trip id="20" depart="364.00" from="E6" to="E1"/>
    <trip id="21" depart="375.00" from="-E5" to="-E3"/>
    <trip id="22" depart="376.00" from="E3" to="-E2"/>
    <trip id="23" depart="379.00" from="E8" to="E6"/>
    <trip id="24" depart="381.00" from="-E5" to="E5"/>
    <trip id="25" depart="447.00" from="-E1" to="-E4"/>
    <trip id="26" depart="452.00" from="E0" to="-E3"/>
    <trip id="27" depart="458.00" from="E4" to="-E6"/>
    <trip id="28" depart="560.00" from="-E5" to="-E11"/>
    <trip id="29" depart="583.00" from="E1" to="E8"/>
    <trip id="30" depart="592.00" from="E1" to="-E10"/>
    <trip id="31" depart="604.00" from="E11" to="E2"/>
    <trip id="32" depart="632.00" from="-E0" to="-E5"/>
    <trip id="33" depart="637.00" from="-E2" to="-E10"/>
    <trip id="34" depart="660.00" from="E8" to="E9"/>
    <trip id="35" depart="680.00" from="E0" to="-E6"/>
    <trip id="36" depart="682.00" from="E1" to="-E0"/>
    <trip id="37" depart="684.00" from="E5" to="E2"/>
    <trip id="38" depart="692.00" from="-E2" to="-E9"/>
    <trip id="39" depart="714.00" from="-E5" to="-E6"/>
    <trip id="40" depart="750.00" from="-E4" to="E0"/>
    <trip id="41" depart="781.00" from="-E11" to="E5"/>
    <trip id="42" depart="810.00" from="E4" to="E3"/>
    <trip id="43" depart="819.00" from="E8" to="-E2"/>
    <trip id="44" depart="825.00" from="-E9" to="-E11"/>
    <trip id="45" depart="826.00" from="E2" to="E5"/>
    <trip id="46" depart="831.00" from="E11" to="-E8"/>
    <trip id="47" depart="847.00" from="-E1" to="-E4"/>
    <trip id="48" depart="879.00" from="-E2" to="E1"/>
    <trip id="49" depart="883.00" from="-E7" to="-E3"/>
    <trip id="50" depart="885.00" from="E11" to="E6"/>
    <trip id="51" depart="907.00" from="E5" to="E9"/>
    <trip id="52" depart="910.00" from="-E1" to="E7"/>
    <trip id="53" depart="939.00" from="E8" to="-E2"/>
    <trip id="54" depart="941.00" from="E10" to="E8"/>
    <trip id="55" depart="960.00" from="-E7" to="E3"/>
    <trip id="56" depart="1009.00" from="E5" to="-E5"/>
    <trip id="57" depart="1030.00" from="E4" to="E4"/>
    <trip id="58" depart="1030.00" from="E7" to="E11"/>
    <trip id="59" depart="1031.00" from="-E4" to="E5"/>
    <trip id="60" depart="1064.00" from="-E4" to="E4"/>
    <trip id="61" depart="1069.00" from="-E5" to="E5"/>
    <trip id="62" depart="1083.00" from="E2" to="-E8"/>
    <trip id="63" depart="1093.00" from="E2" to="E7"/>
    <trip id="64" depart="1129.00" from="-E10" to="E10"/>
    <trip id="65" depart="1175.00" from="-E4" to="E10"/>
    <trip id="66" depart="1193.00" from="E2" to="-E8"/>
    <trip id="67" depart="1201.00" from="-E1" to="E2"/>
    <trip id="68" depart="1210.00" from="E2" to="E0"/>
    <trip id="69" depart="1221.00" from="E10" to="E0"/>
    <trip id="70" depart="1234.00" from="-E3" to="-E3"/>
    <trip id="71" depart="1241.00" from="E0" to="-E0"/>
    <trip id="72" depart="1274.00" from="E3" to="E11"/>
    <trip id="73" depart="1295.00" from="E11" to="E2"/>
    <trip id="74" depart="1307.00" from="-E10" to="-E11"/>
    <trip id="75" depart="1317.00" from="-E11" to="E9"/>
    <trip id="76" depart="1333.00" from="E5" to="-E3"/>
    <trip id="77" depart="1351.00" from="-E3" to="E1"/>
    <trip id="78" depart="1368.00" from="-E10" to="E6"/>
    <trip id="79" depart="1397.00" from="E5" to="E6"/>
    <trip id="80" depart="1398.00" from="E8" to="E8"/>
    <trip id="81" depart="1399.00" from="-E8" to="-E5"/>
    <trip id="82" depart="1399.00" from="-E6" to="-E7"/>
    <trip id="83" depart="1408.00" from="-E1" to="E0"/>
    <trip id="84" depart="1427.00" from="-E1" to="E4"/>
    <trip id="85" depart="1442.00" from="E11" to="-E7"/>
    <trip id="86" depart="1443.00" from="E6" to="E4"/>
    <trip id="87" depart="1475.00" from="E5" to="E2"/>
    <trip id="88" depart="1488.00" from="E4" to="-E7"/>
    <trip id="89" depart="1509.00" from="E2" to="-E10"/>
    <trip id="90" depart="1513.00" from="E1" to="E11"/>
    <trip id="91" depart="1516.00" from="-E7" to="-E4"/>
    <trip id="92" depart="1517.00" from="E6" to="E11"/>
    <trip id="93" depart="1521.00" from="-E3" to="E0"/>
    <trip id="94" depart="1550.00" from="-E4" to="-E7"/>
    <trip id="95" depart="1582.00" from="E7" to="-E3"/>
    <trip id="96" depart="1605.00" from="-E0" to="E11"/>
    <trip id="97" depart="1608.00" from="-E2" to="-E4"/>
    <trip id="98" depart="1610.00" from="E2" to="-E6"/>
    <trip id="99" depart="1634.00" from="E8" to="E2"/>
    <trip id="100" depart="1641.00" from="E10" to="E0"/>
    <trip id="101" depart="1675.00" from="-E11" to="-E11"/>
    <trip id="102" depart="1680.00" from="E9" to="-E7"/>
    <trip id="103" depart="1690.00" from="E3" to="-E9"/>
    <trip id="104" depart="1715.00" from="-E10" to="-E2"/>
    <trip id="105" depart="1728.00" from="E8" to="-E8"/>
    <trip id="106" depart="1737.00" from="-E10" to="-E10"/>
    <trip id="107" depart="1762.00" from="E8" to="E5"/>
    <trip id="108" depart="1794.00" from="-E9" to="-E0"/>
    <trip id="109" depart="1802.00" from="-E3" to="-E10"/>
    <trip id="110" depart="1831.00" from="E9" to="-E0"/>
    <trip id="111" depart="1835.00" from="E3" to="E8"/>
    <trip id="112" depart="1885.00" from="E3" to="E9"/>
    <trip id="113" depart="1913.00" from="-E4" to="E8"/>
    <trip id="114" depart="1931.00" from="E0" to="-E6"/>
    <trip id="115" depart="1954.00" from="-E3" to="-E2"/>
    <trip id="116" depart="2006.00" from="-E5" to="-E9"/>
    <trip id="117" depart="2023.00" from="E2" to="E6"/>
    <trip id="118" depart="2039.00" from="E6" to="-E10"/>
    <trip id="119" depart="2055.00" from="E9" to="E10"/>
    <trip id="120" depart="2096.00" from="-E11" to="-E5"/>
    <trip id="121" depart="2130.00" from="E9" to="E11"/>
    <trip id="122" depart="2163.00" from="-E10" to="-E2"/>
    <trip id="123" depart="2168.00" from="-E10" to="-E0"/>
    <trip id="124" depart="2173.00" from="-E11" to="-E11"/>
    <trip id="125" depart="2176.00" from="E11" to="E3"/>
    <trip id="126" depart="2185.00" from="-E4" to="-E2"/>
    <trip id="127" depart="2195.00" from="E7" to="-E6"/>
    <trip id="128" depart="2219.00" from="E5" to="E8"/>
    <trip id="129" depart="2226.00" from="-E4" to="E0"/>
    <trip id="130" depart="2281.00" from="E4" to="-E3"/>
    <trip id="131" depart="2304.00" from="-E9" to="E5"/>
    <trip id="132" depart="2305.00" from="E8" to="-E9"/>
    <trip id="133" depart="2315.00" from="E2" to="E11"/>
    <trip id="134" depart="2315.00" from="-E9" to="E7"/>
    <trip id="135" depart="2322.00" from="-E9" to="E8"/>
    <trip id="136" depart="2323.00" from="-E4" to="E8"/>
    <trip id="137" depart="2342.00" from="-E2" to="-E1"/>
    <trip id="138" depart="2359.00" from="-E7" to="E5"/>
    <trip id="139" depart="2371.00" from="E10" to="E2"/>
    <trip id="140" depart="2379.00" from="-E3" to="-E3"/>
    <trip id="141" depart="2388.00" from="E6" to="E7"/>
    <trip id="142" depart="2388.00" from="E2" to="-E7"/>
    <trip id="143" depart="2423.00" from="-E5" to="E5"/>
    <trip id="144" depart="2434.00" from="E5" to="E6"/>
    <trip id="145" depart="2455.00" from="-E11" to="-E1"/>
    <trip id="146" depart="2473.00" from="-E10" to="E8"/>
    <trip id="147" depart="2477.00" from="-E10" to="-E5"/>
    <trip id="148" depart="2484.00" from="E4" to="E4"/>
    <trip id="149" depart="2519.00" from="E6" to="-E1"/>
    <trip id="150" depart="2530.00" from="-E7" to="E6"/>
    <trip id="151" depart="2535.00" from="E0" to="E3"/>
    <trip id="152" depart="2549.00" from="E4" to="E11"/>
    <trip id="153" depart="2558.00" from="-E1" to="E2"/>
    <trip id="154" depart="2569.00" from="E1" to="E9"/>
    <trip id="155" depart="2570.00" from="E10" to="E9"/>
    <trip id="156" depart="2582.00" from="-E6" to="-E1"/>
    <trip id="157" depart="2608.00" from="-E1" to="E0"/>
    <trip id="158" depart="2634.00" from="E3" to="E1"/>
    <trip id="159" depart="2653.00" from="E1" to="E0"/>
    <trip id="160" depart="2662.00" from="-E5" to="E8"/>
    <trip id="161" depart="2682.00" from="-E7" to="E9"/>
    <trip id="162" depart="2691.00" from="E0" to="-E11"/>
    <trip id="163" depart="2723.00" from="E7" to="-E2"/>
    <trip id="164" depart="2739.00" from="-E11" to="E0"/>
    <trip id="165" depart="2761.00" from="E1" to="E6"/>
    <trip id="166" depart="2775.00" from="E10" to="E2"/>
    <trip id="167" depart="2789.00" from="-E6" to="E10"/>
    <trip id="168" depart="2805.00" from="-E11" to="-E2"/>
    <trip id="169" depart="2809.00" from="E5" to="E4"/>
    <trip id="170" depart="2812.00" from="E9" to="E8"/>
    <trip id="171" depart="2832.00" from="E8" to="-E11"/>
    <trip id="172" depart="2844.00" from="E9" to="-E0"/>
    <trip id="173" depart="2861.00" from="E5" to="E2"/>
    <trip id="174" depart="2878.00" from="-E6" to="-E4"/>
    <trip id="175" depart="2909.00" from="E6" to="-E4"/>
    <trip id="176" depart="2931.00" from="E4" to="E10"/>
    <trip id="177" depart="2937.00" from="-E8" to="E5"/>
    <trip id="178" depart="2942.00" from="E5" to="-E0"/>
    <trip id="179" depart="2959.00" from="-E6" to="-E3"/>
    <trip id="180" depart="2963.00" from="-E11" to="-E6"/>
    <trip id="181" depart="2987.00" from="-E1" to="E9"/>
    <trip id="182" depart="2989.00" from="-E2" to="E1"/>
    <trip id="183" depart="3015.00" from="-E5" to="-E9"/>
    <trip id="184" depart="3035.00" from="-E10" to="-E5"/>
    <trip id="185" depart="3051.00" from="-E3" to="E5"/>
    <trip id="186" depart="3080.00" from="-E9" to="-E6"/>
    <trip id="187" depart="3090.00" from="-E6" to="E3"/>
    <trip id="188" depart="3093.00" from="E9" to="E6"/>
    <trip id="189" depart="3108.00" from="-E0" to="-E4"/>
    <trip id="190" depart="3110.00" from="-E4" to="-E6"/>
    <trip id="191" depart="3131.00" from="E5" to="E6"/>
    <trip id="192" depart="3140.00" from="-E9" to="E2"/>
    <trip id="193" depart="3141.00" from="E10" to="-E10"/>
    <trip id="194" depart="3154.00" from="-E5" to="E11"/>
    <trip id="195" depart="3210.00" from="-E1" to="E4"/>
    <trip id="196" depart="3219.00" from="E3" to="E5"/>
    <trip id="197" depart="3252.00" from="E5" to="E8"/>
    <trip id="198" depart="3301.00" from="-E10" to="-E4"/>
    <trip id="199" depart="3330.00" from="E5" to="-E0"/>
    <trip id="200" depart="3343.00" from="-E11" to="-E7"/>
    <trip id="201" depart="3348.00" from="-E1" to="E1"/>
    <trip id="202" depart="3369.00" from="E3" to="E5"/>
    <trip id="203" depart="3376.00" from="E8" to="-E10"/>
    <trip id="204" depart="3383.00" from="E5" to="E10"/>
    <trip id="205" depart="3391.00" from="-E9" to="-E7"/>
    <trip id="206" depart="3402.00" from="E2" to="E4"/>
    <trip id="207" depart="3419.00" from="-E7" to="-E11"/>
    <trip id="208" depart="3450.00" from="-E8" to="E0"/>
    <trip id="209" depart="3450.00" from="-E5" to="-E10"/>
    <trip id="210" depart="3464.00" from="E6" to="E6"/>
    <trip id="211" depart="3471.00" from="-E4" to="-E6"/>
    <trip id="212" depart="3496.00" from="-E8" to="-E6"/>
    <trip id="213" depart="3499.00" from="E5" to="-E8"/>
    <trip id="214" depart="3511.00" from="-E11" to="E7"/>
    <trip id="215" depart="3533.00" from="-E5" to="E1"/>
    <trip id="216" depart="3548.00" from="-E5" to="E11"/>
    <trip id="217" depart="3568.00" from="-E7" to="-E11"/>
    <trip id="218" depart="3570.00" from="-E5" to="-E1"/>
    <trip id="219" depart="3573.00" from="-E6" to="-E6"/>
</routes>
